CRYSTAL
PRIMVEC
 13.67700000000000 0.00000000000000 0.00000000000000
 0.00000000000000 12.60700000000000 0.00000000000000
 0.00000000000000 0.00000000000000 18.49700000000000
PRIMCOORD
 144 1
  8     0.00000000000000     0.00504280000000     2.98541580000000
  8     6.83850000000000     6.30854280000000     2.98541580000000
  8     0.00000000000000    12.60195720000000    12.23391580000000
  8     6.83850000000000     6.29845720000000    12.23391580000000
  8     0.00000000000000    12.60195720000000    15.51158420000000
  8     6.83850000000000     6.29845720000000    15.51158420000000
  8     0.00000000000000     0.00504280000000     6.26308420000000
  8     6.83850000000000     6.30854280000000     6.26308420000000
  8     1.98179730000000     0.55218660000000     4.62425000000000
  8     8.82029730000000     6.85568660000000     4.62425000000000
  8    11.69520270000000     0.55218660000000     4.62425000000000
  8     4.85670270000000     6.85568660000000     4.62425000000000
  8     1.98179730000000    12.05481340000000    13.87275000000000
  8     8.82029730000000     5.75131340000000    13.87275000000000
  8    11.69520270000000    12.05481340000000    13.87275000000000
  8     4.85670270000000     5.75131340000000    13.87275000000000
  8     1.71236040000000     1.90996050000000     2.39166210000000
  8     8.55086040000000     8.21346050000000     2.39166210000000
  8    11.96463960000000     1.90996050000000     2.39166210000000
  8     5.12613960000000     8.21346050000000     2.39166210000000
  8     1.71236040000000    10.69703950000000    11.64016210000000
  8     8.55086040000000     4.39353950000000    11.64016210000000
  8    11.96463960000000    10.69703950000000    11.64016210000000
  8     5.12613960000000     4.39353950000000    11.64016210000000
  8    11.96463960000000    10.69703950000000    16.10533790000000
  8     5.12613960000000     4.39353950000000    16.10533790000000
  8     1.71236040000000    10.69703950000000    16.10533790000000
  8     8.55086040000000     4.39353950000000    16.10533790000000
  8    11.96463960000000     1.90996050000000     6.85683790000000
  8     5.12613960000000     8.21346050000000     6.85683790000000
  8     1.71236040000000     1.90996050000000     6.85683790000000
  8     8.55086040000000     8.21346050000000     6.85683790000000
  8     2.46733080000000    11.99808190000000     2.31767410000000
  8     9.30583080000000     5.69458190000000     2.31767410000000
  8    11.20966920000000    11.99808190000000     2.31767410000000
  8     4.37116920000000     5.69458190000000     2.31767410000000
  8     2.46733080000000     0.60891810000000    11.56617410000000
  8     9.30583080000000     6.91241810000000    11.56617410000000
  8    11.20966920000000     0.60891810000000    11.56617410000000
  8     4.37116920000000     6.91241810000000    11.56617410000000
  8    11.20966920000000     0.60891810000000    16.17932590000000
  8     4.37116920000000     6.91241810000000    16.17932590000000
  8     2.46733080000000     0.60891810000000    16.17932590000000
  8     9.30583080000000     6.91241810000000    16.17932590000000
  8    11.20966920000000    11.99808190000000     6.93082590000000
  8     4.37116920000000     5.69458190000000     6.93082590000000
  8     2.46733080000000    11.99808190000000     6.93082590000000
  8     9.30583080000000     5.69458190000000     6.93082590000000
  8     2.00368050000000    10.49154540000000     0.21456520000000
  8     8.84218050000000     4.18804540000000     0.21456520000000
  8    11.67331950000000    10.49154540000000     0.21456520000000
  8     4.83481950000000     4.18804540000000     0.21456520000000
  8     2.00368050000000     2.11545460000000     9.46306520000000
  8     8.84218050000000     8.41895460000000     9.46306520000000
  8    11.67331950000000     2.11545460000000     9.46306520000000
  8     4.83481950000000     8.41895460000000     9.46306520000000
  8    11.67331950000000     2.11545460000000    18.28243480000000
  8     4.83481950000000     8.41895460000000    18.28243480000000
  8     2.00368050000000     2.11545460000000    18.28243480000000
  8     8.84218050000000     8.41895460000000    18.28243480000000
  8    11.67331950000000    10.49154540000000     9.03393480000000
  8     4.83481950000000     4.18804540000000     9.03393480000000
  8     2.00368050000000    10.49154540000000     9.03393480000000
  8     8.84218050000000     4.18804540000000     9.03393480000000
  8     0.00000000000000     9.28379480000000    17.51295960000000
  8     6.83850000000000     2.98029480000000    17.51295960000000
  8     0.00000000000000     3.32320520000000     8.26445960000000
  8     6.83850000000000     9.62670520000000     8.26445960000000
  8     0.00000000000000     3.32320520000000     0.98404040000000
  8     6.83850000000000     9.62670520000000     0.98404040000000
  8     0.00000000000000     9.28379480000000    10.23254040000000
  8     6.83850000000000     2.98029480000000    10.23254040000000
  8     2.45365380000000     8.41139040000000    17.16706570000000
  8     9.29215380000000     2.10789040000000    17.16706570000000
  8    11.22334620000000     8.41139040000000    17.16706570000000
  8     4.38484620000000     2.10789040000000    17.16706570000000
  8     2.45365380000000     4.19560960000000     7.91856570000000
  8     9.29215380000000    10.49910960000000     7.91856570000000
  8    11.22334620000000     4.19560960000000     7.91856570000000
  8     4.38484620000000    10.49910960000000     7.91856570000000
  8    11.22334620000000     4.19560960000000     1.32993430000000
  8     4.38484620000000    10.49910960000000     1.32993430000000
  8     2.45365380000000     4.19560960000000     1.32993430000000
  8     9.29215380000000    10.49910960000000     1.32993430000000
  8    11.22334620000000     8.41139040000000    10.57843430000000
  8     4.38484620000000     2.10789040000000    10.57843430000000
  8     2.45365380000000     8.41139040000000    10.57843430000000
  8     9.29215380000000     2.10789040000000    10.57843430000000
  8    10.12645080000000     0.00000000000000     0.00000000000000
  8     3.28795080000000     6.30350000000000     0.00000000000000
  8     3.55054920000000     0.00000000000000     0.00000000000000
  8    10.38904920000000     6.30350000000000     0.00000000000000
  8    10.12645080000000     0.00000000000000     9.24850000000000
  8     3.28795080000000     6.30350000000000     9.24850000000000
  8     3.55054920000000     0.00000000000000     9.24850000000000
  8    10.38904920000000     6.30350000000000     9.24850000000000
 14     1.54003020000000     0.46519830000000     3.07790080000000
 14     8.37853020000000     6.76869830000000     3.07790080000000
 14    12.13696980000000     0.46519830000000     3.07790080000000
 14     5.29846980000000     6.76869830000000     3.07790080000000
 14     1.54003020000000    12.14180170000000    12.32640080000000
 14     8.37853020000000     5.83830170000000    12.32640080000000
 14    12.13696980000000    12.14180170000000    12.32640080000000
 14     5.29846980000000     5.83830170000000    12.32640080000000
 14    12.13696980000000    12.14180170000000    15.41909920000000
 14     5.29846980000000     5.83830170000000    15.41909920000000
 14     1.54003020000000    12.14180170000000    15.41909920000000
 14     8.37853020000000     5.83830170000000    15.41909920000000
 14    12.13696980000000     0.46519830000000     6.17059920000000
 14     5.29846980000000     6.76869830000000     6.17059920000000
 14     1.54003020000000     0.46519830000000     6.17059920000000
 14     8.37853020000000     6.76869830000000     6.17059920000000
 14     1.54276560000000     9.72125770000000    17.37608180000000
 14     8.38126560000000     3.41775770000000    17.37608180000000
 14    12.13423440000000     9.72125770000000    17.37608180000000
 14     5.29573440000000     3.41775770000000    17.37608180000000
 14     1.54276560000000     2.88574230000000     8.12758180000000
 14     8.38126560000000     9.18924230000000     8.12758180000000
 14    12.13423440000000     2.88574230000000     8.12758180000000
 14     5.29573440000000     9.18924230000000     8.12758180000000
 14    12.13423440000000     2.88574230000000     1.12091820000000
 14     5.29573440000000     9.18924230000000     1.12091820000000
 14     1.54276560000000     2.88574230000000     1.12091820000000
 14     8.38126560000000     9.18924230000000     1.12091820000000
 14    12.13423440000000     9.72125770000000    10.36941820000000
 14     5.29573440000000     3.41775770000000    10.36941820000000
 14     1.54276560000000     9.72125770000000    10.36941820000000
 14     8.38126560000000     3.41775770000000    10.36941820000000
 14    10.57642410000000    11.39924940000000     0.96369370000000
 14     3.73792410000000     5.09574940000000     0.96369370000000
 14     3.10057590000000    11.39924940000000     0.96369370000000
 14     9.93907590000000     5.09574940000000     0.96369370000000
 14    10.57642410000000     1.20775060000000    10.21219370000000
 14     3.73792410000000     7.51125060000000    10.21219370000000
 14     3.10057590000000     1.20775060000000    10.21219370000000
 14     9.93907590000000     7.51125060000000    10.21219370000000
 14     3.10057590000000     1.20775060000000    17.53330630000000
 14     9.93907590000000     7.51125060000000    17.53330630000000
 14    10.57642410000000     1.20775060000000    17.53330630000000
 14     3.73792410000000     7.51125060000000    17.53330630000000
 14     3.10057590000000    11.39924940000000     8.28480630000000
 14     9.93907590000000     5.09574940000000     8.28480630000000
 14    10.57642410000000    11.39924940000000     8.28480630000000
 14     3.73792410000000     5.09574940000000     8.28480630000000
