CRYSTAL
PRIMVEC
 13.67500000000000 0.00000000000000 0.00000000000000
 -6.83750000000000 11.84289739675220 0.00000000000000
 0.00000000000000 0.00000000000000 14.76700000000000
PRIMCOORD
 108 1
  8    11.66477500000000     1.16060394488172     1.81191090000000
  8     4.82727500000000     5.10823641046578     6.73424423333333
  8    -2.01022500000000     9.05586887604985    11.65657756666667
  8     6.83750000000000     9.52168950698877     1.81191090000000
  8     6.83750000000000     1.62642457582064     6.73424423333333
  8     0.00000000000000     5.57405704140470    11.65657756666667
  8     2.01022500000000     1.16060394488171     1.81191090000000
  8     8.84772500000000     5.10823641046578     6.73424423333333
  8     2.01022500000000     9.05586887604985    11.65657756666667
  8    -4.82727500000000    10.68229345187048    12.95508910000000
  8     8.84772500000000     2.78702852070235     3.11042243333333
  8     2.01022500000000     6.73466098628642     8.03275576666667
  8     0.00000000000000     2.32120788976343    12.95508910000000
  8     6.83750000000000     6.26884035534750     3.11042243333333
  8     0.00000000000000    10.21647282093156     8.03275576666667
  8     4.82727500000000    10.68229345187049    12.95508910000000
  8     4.82727500000000     2.78702852070235     3.11042243333333
  8    -2.01022500000000     6.73466098628642     8.03275576666667
  8    11.23606375000000     3.67248248273286     2.46165890000000
  8     4.39856375000000     7.62011494831692     7.38399223333333
  8    -2.43893625000000    11.56774741390099    12.30632556666666
  8     4.87650500000000     7.89447540467502     2.46165890000000
  8    -1.96099500000000    11.84210787025908     7.38399223333333
  8    -1.96099500000000     3.94684293909095    12.30632556666666
  8     4.39993125000000     0.27593950934432     2.46165890000000
  8    -2.43756875000000     4.22357197492839     7.38399223333333
  8     4.39993125000000     8.17120444051246    12.30632556666666
  8     9.27506875000000     0.27593950934432     2.46165890000000
  8     2.43756875000000     4.22357197492839     7.38399223333333
  8    -4.39993125000000     8.17120444051246    12.30632556666666
  8     2.43893625000000     3.67248248273286     2.46165890000000
  8    -4.39856375000000     7.62011494831692     7.38399223333333
  8     2.43893625000000    11.56774741390099    12.30632556666666
  8     8.79849500000000     7.89447540467502     2.46165890000000
  8     1.96099500000000    11.84210787025908     7.38399223333333
  8     1.96099500000000     3.94684293909095    12.30632556666666
  8     0.00068375000000     2.84821682391890     1.94186050000000
  8     6.83818375000000     6.79584928950297     6.86419383333333
  8     0.00068375000000    10.74348175508704    11.78652716666667
  8     4.37053000000000    10.41938112966259     1.94186050000000
  8     4.37053000000000     2.52411619849445     6.86419383333333
  8    -2.46697000000000     6.47174866407852    11.78652716666667
  8    -4.37121375000000    10.41819683992291     1.94186050000000
  8     9.30378625000000     2.52293190875478     6.86419383333333
  8     2.46628625000000     6.47056437433884    11.78652716666667
  8     6.83681625000000     8.99468057283329    12.82513950000000
  8     6.83681625000000     1.09941564166516     2.98047283333333
  8    -0.00068375000000     5.04704810724923     7.90280616666667
  8     2.46697000000000     1.42351626708961    12.82513950000000
  8     9.30447000000000     5.37114873267368     2.98047283333333
  8     2.46697000000000     9.31878119825775     7.90280616666667
  8    11.20871375000000     1.42470055682929    12.82513950000000
  8     4.37121375000000     5.37233302241336     2.98047283333333
  8    -2.46628625000000     9.31996548799742     7.90280616666667
  8    11.91297625000000     3.05191465914304     0.00000000000000
  8     5.07547625000000     6.99954712472711     4.92233333333333
  8    -1.76202375000000    10.94717959031117     9.84466666666667
  8     5.07547625000000     8.79098273760916     0.00000000000000
  8     5.07547625000000     0.89571780644102     4.92233333333333
  8    -1.76202375000000     4.84335027202509     9.84466666666667
  8     3.52404750000000     0.00000000000000     0.00000000000000
  8    10.36154750000000     3.94763246558407     4.92233333333333
  8     3.52404750000000     7.89526493116813     9.84466666666667
  8    10.15095250000000     0.00000000000000     0.00000000000000
  8     3.31345250000000     3.94763246558407     4.92233333333333
  8    -3.52404750000000     7.89526493116813     9.84466666666667
  8     1.76202375000000     3.05191465914304     0.00000000000000
  8     8.59952375000000     6.99954712472711     4.92233333333333
  8     1.76202375000000    10.94717959031117     9.84466666666667
  8     8.59952375000000     8.79098273760916     0.00000000000000
  8     8.59952375000000     0.89571780644102     4.92233333333333
  8     1.76202375000000     4.84335027202509     9.84466666666667
 14    12.12288750000000     2.68123197062470     1.55201170000000
 14     5.28538750000000     6.62886443620876     6.47434503333333
 14    -1.55211250000000    10.57649690179283    11.39667836666666
 14     5.29154125000000     9.15811255690848     1.55201170000000
 14     5.29154125000000     1.26284762574034     6.47434503333333
 14    -1.54595875000000     5.21048009132441    11.39667836666666
 14     3.09807125000000     0.00355286921903     1.55201170000000
 14     9.93557125000000     3.95118533480309     6.47434503333333
 14     3.09807125000000     7.89881780038716    11.39667836666666
 14    10.57692875000000     0.00355286921903     1.55201170000000
 14     3.73942875000000     3.95118533480309     6.47434503333333
 14    -3.09807125000000     7.89881780038716    11.39667836666666
 14     1.55211250000000     2.68123197062470     1.55201170000000
 14     8.38961250000000     6.62886443620876     6.47434503333333
 14     1.55211250000000    10.57649690179283    11.39667836666666
 14     8.38345875000000     9.15811255690848     1.55201170000000
 14     8.38345875000000     1.26284762574034     6.47434503333333
 14     1.54595875000000     5.21048009132441    11.39667836666666
 14    -5.28538750000000     9.16166542612750    13.21498830000000
 14     8.38961250000000     1.26640049495937     3.37032163333333
 14     1.55211250000000     5.21403296054343     8.29265496666667
 14     1.54595875000000     2.68478483984372    13.21498830000000
 14     8.38345875000000     6.63241730542779     3.37032163333333
 14     1.54595875000000    10.58004977101186     8.29265496666667
 14     3.73942875000000    11.83934452753318    13.21498830000000
 14     3.73942875000000     3.94407959636504     3.37032163333333
 14    -3.09807125000000     7.89171206194911     8.29265496666667
 14    -3.73942875000000    11.83934452753318    13.21498830000000
 14     9.93557125000000     3.94407959636504     3.37032163333333
 14     3.09807125000000     7.89171206194911     8.29265496666667
 14     5.28538750000000     9.16166542612750    13.21498830000000
 14     5.28538750000000     1.26640049495937     3.37032163333333
 14    -1.55211250000000     5.21403296054343     8.29265496666667
 14    -1.54595875000000     2.68478483984372    13.21498830000000
 14     5.29154125000000     6.63241730542779     3.37032163333333
 14    -1.54595875000000    10.58004977101186     8.29265496666667
